LTspice 24.0.12 for Windows
Circuit: * C:\Users\iwamoto\Desktop\sound_remocon_kicad\mixer_circuit.asc
Start Time: Thu Jun 26 22:51:22 2025
solver = Normal
Maximum thread count: 8
tnom = 27
temp = 27
method = modified trap
Limiting rise time of source v5 to 0.0001
Limiting fall time of source v5 to 0.0001
Limiting rise time of source v2 to 8.33e-05
Limiting fall time of source v2 to 8.33e-05
Limiting rise time of source v3 to 7.14e-05
Limiting fall time of source v3 to 7.14e-05
Direct Newton iteration failed to find .op point.  (Use ".option noopiter" to skip.)
Starting Gmin stepping
Gmin = 10
Gmin = 1.07374
Gmin = 0.115292
Gmin = 0.0123794
Gmin = 0.00132923
Gmin = 0.000142725
Gmin = 1.5325e-05
Gmin = 1.6455e-06
vernier = 0.5
Gmin = 3.06744e-07
vernier = 0.666667
Gmin = 7.59426e-08
vernier = 0.888888
vernier = 1
Gmin = 9.33136e-09
Gmin = 1.00195e-09
Gmin = 1.07583e-10
Gmin = 1.15517e-11
Gmin = 1.24035e-12
Gmin = 1.33182e-13
Gmin = 0
Gmin stepping succeeded in finding the operating point.

Total elapsed time: 9.451 seconds.

