LTspice 24.0.12 for Windows
Circuit: * C:\Users\iwamoto\Desktop\sound_remocon_kicad\mixer_circuit.asc
Start Time: Sun Dec 29 15:35:11 2024
solver = Normal
Maximum thread count: 8
tnom = 27
temp = 27
method = modified trap
Limiting rise time of source v2 to 1.25e-05
Limiting fall time of source v2 to 1.25e-05
Limiting rise time of source v3 to 1e-05
Limiting fall time of source v3 to 1e-05
Limiting rise time of source v4 to 8.3327e-06
Limiting fall time of source v4 to 8.3327e-06
Direct Newton iteration failed to find .op point.  (Use ".option noopiter" to skip.)
Starting Gmin stepping
Gmin = 10
Gmin = 1.07374
Gmin = 0.115292
Gmin = 0.0123794
Gmin = 0.00132923
Gmin = 0.000142725
Gmin = 1.5325e-05
Gmin = 1.6455e-06
Gmin = 1.76685e-07
Gmin = 1.89714e-08
Gmin = 2.03704e-09
Gmin = 2.18725e-10
Gmin = 2.34854e-11
Gmin = 2.52173e-12
Gmin = 2.70769e-13
Gmin = 0
Gmin stepping succeeded in finding the operating point.

Total elapsed time: 1.500 seconds.

